Circuit: * G:\O meu disco\MIEEC\5º Ano\2º Semestre\EDA\Trabalho3\LT\Octa.asc


Date: Mon May 31 17:49:24 2021
Total elapsed time: 0.157 seconds.

tnom = 27
temp = 27
method = trap
totiter = 0
traniter = 0
tranpoints = 0
accept = 0
rejected = 0
matrix size = 3
fillins = 0
solver = Normal

