Circuit: * G:\O meu disco\MIEEC\5º Ano\2º Semestre\EDA\Lab4\Draft2.asc

.step vgs=0.4
.step vgs=0.6
.step vgs=0.8
.step vgs=1
.step vgs=1.2

Date: Thu Apr 08 15:20:44 2021
Total elapsed time: 0.236 seconds.

tnom = 27
temp = 27
method = trap
totiter = 245
traniter = 0
tranpoints = 0
accept = 0
rejected = 0
matrix size = 8
fillins = 0
solver = Normal
Matrix Compiler1: 336 bytes object code size  0.2/0.1/[0.1]
Matrix Compiler2: 656 bytes object code size  0.1/0.1/[0.1]

