Questionable use of curly braces in "v1 n002 0 {vgs}"
    Error: undefined symbol in: "[vgs]"
Circuit: * G:\O meu disco\MIEEC\5º Ano\2º Semestre\EDA\Trabalho 1\Circuito.asc

Error on line 2 : v1 n002 0 (vgs)
	 Unknown parameter "vgs"
V1: Missing value, assumed 0V @ DC

Date: Mon Apr 19 10:55:02 2021
Total elapsed time: 0.130 seconds.

tnom = 27
temp = 27
method = trap
totiter = 245
traniter = 0
tranpoints = 0
accept = 0
rejected = 0
matrix size = 8
fillins = 0
solver = Normal
Matrix Compiler1: 336 bytes object code size  0.1/0.1/[0.1]
Matrix Compiler2: off  [0.1]/0.1/0.1

