Circuit: * G:\O meu disco\MIEEC\5º Ano\2º Semestre\EDA\Trabalho 1\Draft1.asc


Date: Fri May 28 16:54:52 2021
Total elapsed time: 0.064 seconds.

tnom = 27
temp = 27
method = trap
totiter = 0
traniter = 0
tranpoints = 0
accept = 0
rejected = 0
matrix size = 3
fillins = 0
solver = Normal

